Geom Title=Geometry Data + Interpolation
Program Version=5.03
Viewing Rectangle= 0 , 1 , 1 , 0 

River Reach=Critical Cr.    ,Upper Reach     
Reach XY= 7 
             0.5             0.9       0.4883721       0.7558824
       0.5073996       0.6294118       0.5095137       0.4970588
       0.4926004       0.3411765       0.5158562       0.1970588
       0.5018015       0.1095901
Rch Text X Y=0.5004504,0.7023975
Reverse River Text= 0 

Type RM Length L Ch R = 1 ,12      ,125,125,125
BEGIN DESCRIPTION:
Upstream Boundary - XSec 12
END DESCRIPTION:
XS GIS Cut Line=5
0.603929119800580.891614643790010.503149367266680.89974589829667
             0.5             0.90.496850632733320.90025410170333
0.446740700223410.90429714213859
Node Last Edited Time=Feb/01/2021 17:43:43
#Sta/Elev= 73 
       0  1821.4      11  1818.2      26  1813.9      43    1812      55  1812.5
      67  1811.4      73  1812.3      88  1811.4      97  1810.5     126  1810.6
     148  1810.6     175  1811.2     195  1811.2     216  1812.5     234  1814.4
     258  1814.8     264  1812.2     269  1811.6     271  1810.5     274  1810.7
     281  1810.7     288    1811     296    1811     298  1810.2     304  1811.4
     311  1812.4     318  1813.7     325  1813.7     328    1812     337    1812
     342    1811     346    1812     358  1811.9     368  1811.1     400  1811.6
     432  1811.3     466  1811.9     494  1812.4     529  1812.4     562  1812.2
     609  1812.2     628  1811.8     652  1812.3     679  1812.3     709  1813.1
     720  1814.5     726  1809.9     731  1805.5     740  1803.6     746  1804.6
     748  1805.5     754  1808.8     765  1814.2     785  1813.6     817  1814.1
     852  1814.5     890    1815     927  1815.2     960  1816.5     984    1818
    1002  1818.9    1015  1819.4    1026  1820.5    1038  1821.6    1051  1822.4
    1065  1822.9    1075  1822.9    1092  1822.8    1096  1819.8    1103  1820.1
    1108  1824.9    1116  1827.4    1123  1828.8
#Mann= 3 , 0 , 0 
       0      .1       0     720     .04       0     765      .1       0
Bank Sta=720,765
XS Rating Curve= 0 ,0
XS HTab Starting El and Incr=1804.1,1, 25 
XS HTab Horizontal Distribution= 5 , 5 , 5 
Exp/Cntr=0.3,0.1

Type RM Length L Ch R = 1 ,11.750* ,125,125,125
XS GIS Cut Line=8
0.606629913734680.874967961793120.50403397654157 0.8821402225726
0.500827853504290.882364355721960.497621730467010.88258848887131
0.496973446397220.882633809012980.492313058809980.88300982499455
0.487652671222720.88338584097612 0.44664126045490.88669478161396
Node Last Edited Time=Feb/02/2021 19:18:17
#Sta/Elev= 128 
       0 1820.78   11.39 1817.97   19.03 1816.12   26.93 1814.28   38.96    1813
   44.54 1812.56   55.27  1812.9   56.97 1812.94    69.4 1812.02   71.58 1812.24
   75.61 1812.68   91.15 1812.01  100.47 1811.35  106.92 1811.37  129.58    1811
  130.51 1810.99  153.29 1810.71  155.86 1810.72   177.6 1810.94  181.26 1811.01
  201.97 1811.04  207.51  1811.3  223.73 1813.58  242.37 1816.78  258.25 1818.49
  267.23  1818.6  273.44 1816.65  278.62  1816.2  280.69 1815.38   283.8 1815.52
  291.05 1815.52   298.3 1815.75  306.59 1815.75  308.66 1815.15  314.87 1816.05
  322.12  1816.8  329.37 1817.77  336.62 1817.77  339.73  1816.5  349.05  1816.5
  354.23 1815.75  358.37  1816.5   370.8 1816.43  376.05 1816.12  381.16 1810.96
  381.48 1810.65   384.2 1810.91  391.45 1810.99  395.98 1810.87  402.32 1810.54
  409.57 1810.62  410.48 1810.83  414.31 1810.88  417.73 1810.85  437.66 1810.52
  440.38  1810.2  444.91 1810.52  447.45  1810.5  453.97 1810.58   458.5 1810.49
  468.47 1810.64  482.67 1810.67   486.6 1810.68  511.67 1810.96  515.59 1810.95
  542.78 1811.03  547.92 1811.04  579.93 1810.96   582.1 1810.95  610.74 1810.97
   620.7 1810.95  630.78 1811.01  642.45  1810.9  650.46 1810.78  671.45 1811.12
  675.32 1811.18  699.54  1811.2  703.28 1811.19  714.94  1811.4  727.63 1811.62
  734.36  1811.7  745.75 1812.68  752.95 1808.69  757.75 1805.69  758.95  1804.9
  763.75 1803.77  764.42 1803.68  769.75 1802.88  775.36 1803.72  776.29 1803.77
  776.96 1803.93  778.47 1804.57  784.18 1807.36  785.01 1807.73     797 1812.62
   816.3 1812.27  826.17 1812.44  847.18 1812.82  851.97 1812.89  880.96  1813.4
  881.13  1813.4  903.57 1813.91  917.64 1814.11  931.61 1814.23  953.34 1814.47
   961.9 1814.79  985.19 1815.59  993.31 1816.02 1008.35 1816.76 1025.72 1817.45
 1025.84 1817.45 1038.27 1817.82 1048.89 1818.65 1058.37 1819.33 1060.47 1819.48
 1073.01 1820.14 1086.41 1820.57 1086.53 1820.58 1096.18 1820.84 1102.12 1820.97
 1112.58 1821.57 1116.44 1819.56 1117.82  1819.7  1123.2 1819.83 1128.02 1823.38
 1135.74 1825.19 1136.89 1825.35  1142.5 1826.33
#Mann= 3 , 0 , 0 
       0      .1       0  745.75     .04       0     797      .1       0
Bank Sta=745.75,797
XS Rating Curve= 0 ,0
XS HTab Starting El and Incr=1803.38,1, 26 
XS HTab Horizontal Distribution= 5 , 5 , 5 
Exp/Cntr=0.3,0.1

Type RM Length L Ch R = 1 ,11.500* ,125,125,125
XS GIS Cut Line=8
0.609330707668770.858321279796230.504918585816470.86453454684853
0.501655707008590.864728711443910.498392828200710.86492287603929
0.497733068008040.864962136483340.492993137700480.86534457024315
0.488253207392920.865727004002960.446541820686390.86909242108932
Node Last Edited Time=Feb/02/2021 19:18:17
#Sta/Elev= 128 
       0 1820.15   11.79 1817.74   19.69 1816.14   27.86 1814.65   40.31  1813.4
   46.08 1813.12   57.18 1813.37   58.93 1813.37   71.79 1812.63   74.06 1812.76
   78.22 1813.06   94.29 1812.63  103.94 1812.19  110.62 1812.21  134.05  1811.4
  135.01 1811.38  158.59 1810.81  161.24 1810.78  183.74 1810.76  187.52 1810.81
  208.95 1810.88  214.67 1811.07  231.45 1814.65  250.74 1819.16  267.17 1822.33
  276.45  1822.4  282.88  1821.1  288.24  1820.8  290.38 1820.25   293.6 1820.35
   301.1 1820.35   308.6  1820.5  317.17  1820.5  319.32  1820.1  325.74  1820.7
  333.25  1821.2  340.75 1821.85  348.25 1821.85  351.46    1821   361.1    1821
  366.46  1820.5  370.75    1821  383.61 1820.95  389.03 1820.75  394.32 1810.81
  394.66  1810.2  397.47 1810.67  404.97 1810.73  409.65 1810.41  416.22 1809.66
  423.72 1809.71  424.65 1810.12  428.61 1810.15  432.15 1810.13  452.78 1809.64
  455.59 1809.03  460.28 1809.71   462.9  1809.7  469.65 1809.76  474.34 1809.49
  484.65 1809.63  499.33 1809.44   503.4 1809.38  529.33 1809.51  533.39  1809.5
  561.52 1809.65  566.84 1809.67  599.95 1809.71   602.2  1809.7  631.82 1809.75
  642.14  1809.7  652.56 1809.82  664.63 1809.83  672.92 1809.76  694.63 1810.01
  698.64 1810.06  723.69  1810.1  727.57 1810.09  739.63  1810.2  752.75 1810.31
  759.71 1810.31   771.5 1810.85   779.9 1807.47   785.5 1804.99   786.9  1804.3
   792.5 1802.88  793.28 1802.82   799.5 1802.15  805.57 1802.98  806.58 1802.93
  807.31 1802.99  808.94 1803.63  815.12 1806.34  816.02 1806.67     829 1811.05
   847.6 1810.95  857.11 1811.13  877.37 1811.54  881.98 1811.63  909.92  1812.3
  910.09  1812.3  931.71    1813  945.27 1813.23  958.74 1813.39  979.69 1813.74
  987.93 1814.02 1010.38 1814.69  1018.2 1815.01 1032.71 1815.52 1049.45    1816
 1049.56    1816 1061.54 1816.25 1071.77  1816.8 1080.91 1817.25 1082.94 1817.37
 1095.03 1817.88 1107.94 1818.25 1108.05 1818.26 1117.35 1818.78 1123.08 1819.08
 1133.16 1820.35 1136.89 1819.33 1138.21 1819.53  1143.4 1819.55 1148.05 1821.86
 1155.49 1822.97 1156.59 1823.07    1162 1823.85
#Mann= 3 , 0 , 0 
       0      .1       0   771.5     .04       0     829      .1       0
Bank Sta=771.5,829
XS Rating Curve= 0 ,0
XS HTab Starting El and Incr=1802.65,1, 27 
XS HTab Horizontal Distribution= 5 , 5 , 5 
Exp/Cntr=0.3,0.1

Type RM Length L Ch R = 1 ,11.250* ,125,125,125
XS GIS Cut Line=8
0.612031501602870.841674597799340.505803195091360.84692887112446
0.502483560512880.84709306716586 0.49916392593440.84725726320727
0.49849268961885 0.84729046395370.493673216590990.84767931549175
0.488853743563110.848068167029810.446442380917880.85149006056469
Node Last Edited Time=Feb/02/2021 19:18:17
#Sta/Elev= 128 
       0 1819.53   12.18 1817.51   20.34 1816.17   28.79 1815.03   41.65  1813.8
   47.61 1813.68   59.09 1813.83    60.9 1813.81   74.19 1813.25   76.53 1813.28
   80.83 1813.43   97.44 1813.24  107.41 1813.04  114.31 1813.06  138.53  1811.8
  139.52 1811.77  163.88 1810.92  166.62 1810.84  189.87 1810.58  193.78 1810.62
  215.92 1810.72  221.84 1810.83  239.17 1815.73  259.11 1821.55  276.08 1826.16
  285.68  1826.2  292.33 1825.55  297.86  1825.4  300.08 1825.12   303.4 1825.18
  311.15 1825.18   318.9 1825.25  327.76 1825.25  329.97 1825.05  336.62 1825.35
  344.37  1825.6  352.12 1825.93  359.87 1825.93  363.19  1825.5  373.16  1825.5
  378.69 1825.25  383.12  1825.5  396.41 1825.47  402.02 1825.37  407.48 1810.67
  407.83 1809.75  410.73 1810.44  418.48 1810.46  423.33 1809.96  430.11 1808.78
  437.86 1808.81  438.83 1809.41  442.92 1809.42  446.58 1809.42  467.89 1808.77
  470.79 1807.87  475.64 1808.91  478.35  1808.9  485.32 1808.93  490.17  1808.5
  500.82 1808.61     516 1808.21   520.2 1808.09     547 1808.07   551.2 1808.05
  580.26 1808.28  585.76 1808.31  619.98 1808.45   622.3 1808.46  652.91 1808.53
  663.57 1808.45  674.34 1808.62  686.82 1808.77  695.38 1808.75  717.82 1808.91
  721.95 1808.94  747.85    1809  751.85 1808.98  764.31    1809  777.88 1809.01
  785.07 1808.91  797.25 1809.02  806.85 1806.25  813.25 1804.29  814.85  1803.7
  821.25 1801.99  822.14 1801.96  829.25 1801.42  835.79 1802.24  836.87  1802.1
  837.65 1802.04  839.41  1802.7  846.06 1805.32  847.03  1805.6     861 1809.47
  878.91 1809.62  888.06 1809.81  907.55 1810.27  911.99 1810.36  938.89  1811.2
  939.04  1811.2  959.86  1812.1  972.91 1812.34  985.87 1812.54 1006.03 1813.01
 1013.97 1813.26 1035.57 1813.78  1043.1 1814.01 1057.06 1814.28 1073.17 1814.55
 1073.28 1814.55 1084.81 1814.68 1094.66 1814.95 1103.46 1815.18  1105.4 1815.25
 1117.04 1815.62 1129.47 1815.92 1129.58 1815.93 1138.53 1816.72 1144.04 1817.19
 1153.75 1819.12 1157.33 1819.09 1158.61 1819.37 1163.59 1819.28 1168.07 1820.34
 1175.23 1820.76  1176.3 1820.78  1181.5 1821.38
#Mann= 3 , 0 , 0 
       0      .1       0  797.25     .04       0     861      .1       0
Bank Sta=797.25,861
XS Rating Curve= 0 ,0
XS HTab Starting El and Incr=1801.92,1, 28 
XS HTab Horizontal Distribution= 5 , 5 , 5 
Exp/Cntr=0.3,0.1

Type RM Length L Ch R = 1 ,11      ,125,125,122.5
BEGIN DESCRIPTION:
Cross Section 11
END DESCRIPTION:
XS GIS Cut Line=5
0.614732295536960.825027915802450.499252311229660.82961879142406
0.494353295481490.830014060740350.489454279733310.83040933005665
0.446342941149370.83388770004005
Node Last Edited Time=Feb/01/2021 17:43:43
#Sta/Elev= 60 
       0  1818.9      21  1816.2      43  1814.2      61  1814.3      79  1813.8
     118  1813.9     143  1812.2     172  1810.9     196  1810.4     229  1810.6
     285    1830     415    1830     421  1809.3     424  1810.2     432  1810.2
     437  1809.5     444  1807.9     452  1807.9     453  1808.7     461  1808.7
     483  1807.9     486  1806.7     491  1808.1     501  1808.1     506  1807.5
     517  1807.6     537  1806.8     569  1806.6     599  1806.9     640  1807.2
     674  1807.3     685  1807.2     709  1807.7     741  1807.8     772  1807.9
     789  1807.8     803  1807.7     823  1807.2     841  1803.6     850  1801.1
     851  1801.1     859  1800.7     866  1801.5     868  1801.1     877  1804.3
     893  1807.9     919  1808.5     942  1809.1     968  1810.1     988  1811.2
    1013  1811.7    1040  1812.5    1068    1813    1097  1813.1    1126  1813.1
    1151  1813.6    1165  1815.3    1179  1819.2    1196  1818.5    1201  1818.9
#Mann= 3 , 0 , 0 
       0      .1       0     823     .04       0     893      .1       0
Bank Sta=823,893
XS Rating Curve= 0 ,0
XS HTab Starting El and Incr=1801.2,1, 29 
XS HTab Horizontal Distribution= 5 , 5 , 5 
Exp/Cntr=0.3,0.1

Type RM Length L Ch R = 1 ,10.750* ,125,125,122.5
XS GIS Cut Line=8
0.621585430949370.809587564165150.502843333109640.81229486819335
0.497802578180260.812560026323850.492761823250860.81282518445436
0.482323924688150.81337424778079 0.47986600907210.81357256080426
0.477408093456070.813770873827740.448406531808790.81532587034324
Node Last Edited Time=Feb/02/2021 19:20:39
#Sta/Elev= 116 
       0 1817.88    5.28 1817.02   24.48 1815.57   32.88 1814.79   38.87 1814.34
   53.75 1813.42   67.32 1812.31   67.67  1812.3   77.75  1811.7   91.66 1811.16
    95.5 1811.04  102.22 1810.71  119.02 1810.29  123.67 1810.14   136.3 1809.92
  151.17 1810.21  166.05 1810.53  180.93 1810.75  184.73 1810.73  196.29  1810.3
  211.64  1809.9  223.87 1809.58  231.32 1809.46  242.36 1809.15  249.56 1808.75
  267.32 1808.64  269.27 1808.53  273.07 1808.36  282.19  1808.4  285.07 1808.57
  287.95 1809.06  289.39  1808.8  291.31 1808.93  294.67  1808.9  296.11 1808.66
  299.95 1808.57  301.87 1808.37  306.84 1808.36  309.55 1808.38  322.03 1808.42
  334.98 1808.61  347.46 1808.54   358.5 1808.55  375.87 1814.76  406.75  1827.5
  453.79 1827.68   516.5 1827.78  523.07 1816.13     528 1807.53  530.67 1808.17
  537.79 1808.08  542.24  1807.5  542.31 1807.49  548.47 1806.29  555.59 1806.27
  556.48 1806.87  562.98 1806.85   563.6 1806.85  583.18 1806.35  585.85 1805.46
  590.29 1806.53  599.19 1806.57  603.64 1806.14  610.68 1806.23  613.43 1806.26
  631.23 1805.75  659.71 1805.73  663.15 1805.78  686.41 1805.93  720.39 1806.08
  722.89 1806.11  753.15 1806.27  762.94 1806.23  779.22 1806.56   784.3 1806.65
  812.78 1806.76  831.69 1806.83  840.36 1806.83  855.49 1806.73  867.95 1806.63
  885.75 1806.22  895.36 1804.33  896.43 1804.16  903.38 1802.51  908.18 1801.08
  911.39 1799.97  912.19 1799.77  913.17 1799.73     921 1799.12  926.35 1800.66
  926.51 1800.68  928.08 1800.46  935.16 1803.23  947.75 1806.57  971.98 1807.32
  972.09 1807.33  993.41 1807.86 1007.97 1808.38 1017.64 1808.69 1036.27 1809.54
 1041.28 1809.63 1059.57 1809.91 1070.75 1810.17 1084.73 1810.62 1100.22 1810.97
 1110.82  1811.3 1134.81 1811.77 1137.84 1811.84 1164.86 1812.39 1165.56 1812.41
 1188.16 1813.29 1189.91  1813.5  1201.2 1814.76 1214.25 1817.88 1230.09 1817.64
 1234.75 1818.03
#Mann= 3 , 0 , 0 
       0      .1       0  885.75     .04       0  947.75      .1       0
Bank Sta=885.75,947.75
XS Rating Curve= 0 ,0
XS HTab Starting El and Incr=1799.62,1, 29 
XS HTab Horizontal Distribution= 5 , 5 , 5 
Exp/Cntr=0.3,0.1

Type RM Length L Ch R = 1 ,10.500* ,125,125,122.5
XS GIS Cut Line=8
0.628438566361780.794147212527860.506434354989610.79497094496265
0.501251860879020.795105991907350.496069366768420.79524103885206
0.485337968677050.795520680756860.482812869702390.79572441436308
0.480287770727750.79592814796929 0.45047012246820.79676404064643
Node Last Edited Time=Feb/02/2021 19:20:39
#Sta/Elev= 116 
       0 1816.85    7.19 1815.58   33.32 1814.24   44.75 1813.38   52.92 1812.83
   73.17 1811.84   91.63 1810.43   92.11  1810.4  105.83 1809.17  124.78 1808.04
  129.99 1807.78  139.15 1807.24  162.01 1806.69  168.35 1806.47  185.53 1806.01
  205.78 1806.57  226.03 1807.18  246.29  1807.6  251.46 1807.56  267.19  1807.2
   288.1 1807.07  304.73 1806.96  314.88 1806.94  329.91 1806.64  339.71 1806.03
  363.88 1806.33  366.53 1806.16  371.72 1805.87  384.13 1806.06  388.05 1806.44
  391.97 1807.48  393.93 1806.97  396.54 1807.25  401.11 1807.23  403.07 1806.77
   408.3 1806.65  410.91 1806.28  417.68 1806.31  421.37 1806.36  438.35 1806.38
  455.99  1806.7  472.97 1806.53     488  1806.5  502.58 1811.94   528.5    1825
  566.86 1825.35     618 1825.55  627.71 1814.09     635 1805.75  637.34 1806.13
  643.58 1805.96  647.48  1805.5  647.54 1805.49  652.94 1804.67  659.18 1804.64
  659.96 1805.03  665.65    1805  666.19 1805.01  683.35 1804.79  685.69 1804.22
  689.59 1804.96  697.39 1805.04  701.29 1804.78  707.45 1804.89  709.87 1804.93
  725.46  1804.7  750.42 1804.87  753.43 1804.92  773.81 1804.97  803.59 1804.99
  805.79 1805.01   832.3 1805.24  840.88 1805.25  855.15 1805.54   859.6 1805.61
  884.55 1805.71  901.13 1805.78  908.73 1805.77  921.99 1805.66   932.9 1805.57
   948.5 1805.25  957.91 1803.42  958.95 1803.31  965.75 1801.42  970.45 1799.92
  973.59 1798.61  974.38 1798.44  975.33 1798.36     983 1797.55   986.9 1799.84
  987.01 1799.87  988.16 1799.83  993.32 1802.16  1002.5 1805.25 1024.95 1806.15
 1025.06 1806.15 1044.82 1806.63 1058.31 1807.05 1067.27 1807.28 1084.55 1807.89
 1089.19 1807.95 1106.14 1808.12  1116.5 1808.28 1129.45 1808.74 1143.81 1809.15
 1153.64  1809.6 1175.88 1810.44 1178.68 1810.57 1203.73 1811.67 1204.38 1811.71
 1225.32 1812.97 1226.94 1813.16 1237.41 1814.22  1249.5 1816.55 1264.18 1816.78
  1268.5 1817.15
#Mann= 3 , 0 , 0 
       0      .1       0   948.5     .04       0  1002.5      .1       0
Bank Sta=948.5,1002.5
XS Rating Curve= 0 ,0
XS HTab Starting El and Incr=1798.05,1, 28 
XS HTab Horizontal Distribution= 5 , 5 , 5 
Exp/Cntr=0.3,0.1

Type RM Length L Ch R = 1 ,10.250* ,125,125,122.5
XS GIS Cut Line=8
0.635291701774190.778706860890560.510025376869590.77764702173194
0.504701143577790.777651957490850.499376910285970.77765689324977
0.488352012665940.777667113732930.485759730332680.77787626792189
0.483167447999430.778085422110850.452533713127620.77820221094962
Node Last Edited Time=Feb/02/2021 19:20:39
#Sta/Elev= 116 
       0 1815.83    9.09 1814.14   42.16 1812.92   56.63 1811.96   66.96 1811.31
   92.58 1810.27  115.95 1808.54  116.56  1808.5  133.92 1806.63  157.89 1804.92
  164.49 1804.52  176.07 1803.77  205.01  1803.1  213.02 1802.81  234.77 1802.11
  260.39 1802.94  286.02 1803.84  311.64 1804.45  318.19 1804.39   338.1  1804.1
  364.55 1804.23   385.6 1804.33  398.44 1804.42  417.45 1804.12  429.85 1803.32
  460.44 1804.01   463.8  1803.8  470.36 1803.39  486.06 1803.73  491.02 1804.32
  495.98 1805.89  498.46 1805.13  501.77 1805.58  507.56 1805.57  510.04 1804.89
  516.65 1804.72  519.96 1804.19  528.52 1804.27  533.18 1804.33  554.68 1804.34
  576.99  1804.8  598.49 1804.51   617.5 1804.45  629.29 1809.12  650.25  1822.5
  679.93 1823.02   719.5 1823.32  732.36 1812.04     742 1803.97  744.01  1804.1
  749.37 1803.84  752.72  1803.5  752.77  1803.5   757.4 1803.06  762.76    1803
  763.43  1803.2  768.33 1803.15  768.79 1803.16  783.53 1803.24  785.54 1802.97
  788.88 1803.39  795.58 1803.51  798.93 1803.43  804.23 1803.54   806.3 1803.59
  819.69 1803.64  841.13    1804  843.72 1804.06  861.22    1804   886.8 1803.89
  888.68 1803.92  911.45 1804.22  918.82 1804.28  931.07 1804.52   934.9 1804.56
  956.33 1804.67  970.56 1804.74  977.09  1804.7  988.48 1804.59  997.85  1804.5
 1011.25 1804.28 1020.45 1802.51 1021.48 1802.45 1028.12 1800.33 1032.73 1798.76
  1035.8 1797.26 1036.56 1797.11  1037.5 1796.99    1045 1795.97 1047.45 1799.02
 1047.52 1799.05 1048.24 1799.19 1051.49 1801.08 1057.25 1803.93 1077.93 1804.97
 1078.03 1804.98 1096.23 1805.39 1108.66 1805.73 1116.91 1805.87 1132.82 1806.23
 1137.09 1806.28  1152.7 1806.33 1162.25 1806.39 1174.18 1806.86 1187.41 1807.32
 1196.45  1807.9 1216.94 1809.12 1219.52 1809.31 1242.59 1810.96 1243.19    1811
 1262.48 1812.66 1263.97 1812.83 1273.61 1813.69 1284.75 1815.22 1298.27 1815.92
 1302.25 1816.28
#Mann= 3 , 0 , 0 
       0      .1       0 1011.25     .04       0 1057.25      .1       0
Bank Sta=1011.25,1057.25
XS Rating Curve= 0 ,0
XS HTab Starting El and Incr=1796.47,1, 27 
XS HTab Horizontal Distribution= 5 , 5 , 5 
Exp/Cntr=0.3,0.1

Type RM Length L Ch R = 1 ,10      ,125,127.5,125
BEGIN DESCRIPTION:
Cross Section 10
END DESCRIPTION:
XS GIS Cut Line=5
 0.64214483718660.763266509253260.49136605665484  0.759813546709
0.488706590962970.760028121480710.486047125271110.76024269625241
0.454597303787030.75964038125281
Node Last Edited Time=Feb/01/2021 17:43:43
#Sta/Elev= 66 
       0  1814.8      11  1812.7      51  1811.6      81  1809.8     112  1808.7
     141  1806.6     162  1804.1     191  1801.8     213  1800.3     248  1799.5
     284  1798.2     315  1799.3     346  1800.5     377  1801.3     409    1801
     441  1801.4     482  1801.9     505  1801.6     520  1800.6     557  1801.7
     569  1800.9     588  1801.4     594  1802.2     600  1804.3     603  1803.3
     607  1803.9     614  1803.9     617    1803     625  1802.8     629  1802.1
     645  1802.3     671  1802.3     698  1802.9     724  1802.5     747  1802.4
     756  1806.3     772    1820     793  1820.7     821  1821.1     837    1810
     849  1802.2     858  1801.5     871  1801.3     901  1802.2     934  1803.2
     970  1802.8    1007  1803.5    1040  1803.7    1074  1803.3    1083  1801.6
    1084  1801.6    1095  1797.6    1098  1795.9    1107  1794.4    1108  1798.2
    1112  1802.6    1131  1803.8    1159  1804.4    1185  1804.6    1208  1804.5
    1231  1805.5    1258  1807.8    1282  1810.3    1301  1812.5    1320  1813.9
    1336  1815.4
#Mann= 3 , 0 , 0 
       0      .1       0    1074     .04       0    1112      .1       0
Bank Sta=1074,1112
XS Rating Curve= 0 ,0
XS HTab Starting El and Incr=1794.9,1, 26 
XS HTab Horizontal Distribution= 5 , 5 , 5 
Exp/Cntr=0.3,0.1

Type RM Length L Ch R = 1 ,9.7500* ,125,127.5,125
XS GIS Cut Line=8
0.646838036764280.746525760929540.496991200114310.74234639655699
0.49389711020693 0.74217148141990.49285070153587 0.7421123258292
0.490807510060420.74215238472156 0.49013972137480.74216547741278
0.487428741213740.742218628996350.455395621424630.74049622922429
Node Last Edited Time=Feb/02/2021 19:18:17
#Sta/Elev= 122 
       0 1814.43   11.16 1812.85   11.52 1812.84   20.15 1812.59   33.59 1811.19
   51.72 1809.31   51.82  1809.3    69.1 1807.65   82.15 1806.74   89.25 1806.36
  113.59 1805.68  127.64  1804.9     143 1804.11  162.19 1802.46   164.3 1802.28
  193.71 1800.61  199.62 1800.33  216.02 1799.47     238 1799.05  251.52  1798.8
  262.96 1798.47  288.03 1797.96  293.67 1798.15  319.47 1798.76  324.38 1798.89
  350.91 1799.78  359.88    1800  382.35 1800.49  394.43 1800.44  414.81 1800.28
   440.5 1800.49  447.26 1800.54  478.89 1800.76  488.84 1800.84  512.17 1800.58
  513.44 1800.51  527.38 1799.87  534.55 1800.06   559.5 1800.38  564.91 1800.54
  577.08 1800.01  582.53 1800.16  596.35 1800.52  600.77 1800.99  602.43 1801.12
  608.52 1802.58  611.56 1801.77  615.62 1802.14  622.72    1802  622.84 1801.97
  625.76 1801.35  633.87 1801.25  637.93 1800.76  640.11  1800.8  647.79 1801.42
  654.16 1801.48  656.43 1801.48  659.31 1801.12  668.91 1801.48  680.53 1801.19
  686.18 1801.14  699.62 1801.26  707.91 1801.38  734.28 1801.01  738.96 1800.98
  757.61 1800.96  766.73  1803.9  782.96  1814.2  783.11  1814.2  804.26 1814.74
  829.17 1815.01  832.66 1815.05  848.88 1806.71  861.06 1800.85  863.72  1800.7
  870.18 1800.32  883.37 1800.16  891.55 1800.33  913.79 1800.87  936.66 1801.44
  947.26 1801.66  975.05  1801.4  983.77 1801.24 1007.68 1801.33  1021.3 1801.79
 1043.18 1802.32 1054.77 1802.26 1066.22 1802.05 1067.18 1802.04 1089.25  1801.6
 1097.02  1799.3 1097.89 1799.19 1098.75  1798.8 1102.55 1797.15 1107.39 1795.55
 1109.98 1794.23 1117.75 1792.97  1120.1 1796.46 1120.32  1796.6 1122.16 1797.72
  1129.5 1801.25 1148.74 1802.39 1149.45 1802.42 1167.98 1802.51 1178.86 1802.62
 1192.47 1802.62 1206.17 1803.51 1206.46 1803.52 1216.08 1802.89 1230.32 1803.23
 1246.69 1804.18 1254.48 1804.72 1278.17 1807.04 1282.83 1807.44 1300.91 1809.22
 1308.04 1809.89  1318.4 1810.96 1327.99 1811.93 1330.64 1812.11 1347.95  1813.1
 1354.26 1813.55 1364.75 1814.93
#Mann= 3 , 0 , 0 
       0      .1       0 1089.25     .04       0  1129.5      .1       0
Bank Sta=1089.25,1129.5
XS Rating Curve= 0 ,0
XS HTab Starting El and Incr=1793.47,1, 26 
XS HTab Horizontal Distribution= 5 , 5 , 5 
Exp/Cntr=0.3,0.1

Type RM Length L Ch R = 1 ,9.5000* ,125,127.5,125
XS GIS Cut Line=8
0.651531236341960.729785012605810.498551324723830.72478615400974
0.495400830723630.72450588932895 0.49433534641690.72441110494939
0.492253329897340.724329503607330.491572851786630.72430283334485
0.48881035715637 0.72419456174030.456193939062230.72135207719578
Node Last Edited Time=Feb/02/2021 19:18:17
#Sta/Elev= 122 
       0 1814.05   11.31    1813   11.68    1813   20.44 1812.73   34.06  1810.3
   52.45 1807.02   52.55    1807   70.07 1804.74    83.3 1803.67    90.5 1803.18
  115.18 1802.65  129.43  1802.1     145 1801.62  164.46 1800.57   166.6 1800.46
  196.42 1799.43  202.41 1799.25  219.05 1798.64  241.34  1798.3  255.04  1798.1
  266.64 1797.85  292.07 1797.73  297.78  1797.9  323.95 1798.22  328.92 1798.29
  355.83 1799.06  364.92 1799.26  387.71 1799.68  399.96 1799.69  420.61 1799.56
  446.67 1799.66  453.52 1799.67  485.59 1799.74  495.69 1799.77  519.34 1799.55
  520.62 1799.51  534.77 1799.15  542.03  1799.3  567.33 1799.22  572.82 1799.37
  585.16 1799.13  590.69 1799.27   604.7 1799.64  609.18 1799.99  610.87 1800.04
  617.04 1800.85  620.12 1800.23  624.24 1800.38  631.44  1800.1  631.56 1800.08
  634.52 1799.69  642.75 1799.71  646.86 1799.42  649.08 1799.46  656.86 1800.61
  663.32 1800.65  665.62 1800.65  668.54 1799.95  678.27 1800.65  690.06 1800.08
  695.79 1799.86  709.41 1799.81  717.82 1799.86  744.56 1799.52  749.31 1799.49
  768.21 1799.51  777.47 1801.49  793.92  1808.4  794.07  1808.4  815.52 1808.77
  840.78 1808.98  844.32 1808.99  860.77 1803.42  873.11  1799.5  875.81  1799.4
  882.37 1799.14  895.74 1799.01  904.04 1799.12  926.59 1799.55  949.77 1799.99
  960.52 1800.12   988.7  1799.9  997.55 1799.68 1021.78 1799.42  1035.6 1800.09
 1057.79 1801.02 1069.53 1800.82 1081.15 1800.53 1082.12 1800.53  1104.5  1799.9
 1111.05    1797 1111.77 1796.78  1112.5 1796.37  1115.7 1794.67 1119.77 1793.49
 1121.95 1792.56  1128.5 1791.55  1132.2 1794.73 1132.55  1794.9 1135.44 1796.28
    1147  1799.9 1167.16 1801.03 1167.91 1801.04 1187.32 1800.84 1198.72 1800.84
 1212.98 1800.75 1227.33 1802.42 1227.64 1802.45 1237.72 1801.23 1252.64 1801.97
 1269.79 1803.19 1277.95 1803.93 1302.78 1806.66 1307.67 1807.08 1326.61 1808.85
 1334.08 1809.49 1344.93 1810.47 1354.98 1811.35 1357.76 1811.54 1375.89  1812.3
  1382.5 1812.63  1393.5 1814.45
#Mann= 3 , 0 , 0 
       0      .1       0  1104.5     .04       0    1147      .1       0
Bank Sta=1104.5,1147
XS Rating Curve= 0 ,0
XS HTab Starting El and Incr=1792.05,1, 25 
XS HTab Horizontal Distribution= 5 , 5 , 5 
Exp/Cntr=0.3,0.1

Type RM Length L Ch R = 1 ,9.2500* ,125,127.5,125
XS GIS Cut Line=8
0.656224435919640.713044264282090.50011144933336 0.7072259114625
0.496904551240330.706840297238010.495819991297930.70670988406959
0.49369914973426 0.70650662249310.493005982198460.70644018927692
0.490191973099010.706170494484240.456992256699830.70220792516726
Node Last Edited Time=Feb/02/2021 19:18:17
#Sta/Elev= 122 
       0 1813.68   11.47 1813.15   11.84 1813.15   20.72 1812.86   34.53  1809.4
   53.17 1804.72   53.27  1804.7   71.03 1801.82   84.45  1800.6   91.75 1799.99
  116.77 1799.63  131.21  1799.3  147.01 1799.12  166.73 1798.69   168.9 1798.64
  199.14 1798.24  205.21 1798.18  222.07  1797.8  244.67 1797.55  258.56 1797.39
  270.32 1797.22   296.1 1797.49  301.89 1797.65  328.42 1797.69  333.46  1797.7
  360.74 1798.34  369.96 1798.53  393.06 1798.87  405.48 1798.95  426.42 1798.83
  452.83 1798.83  459.79 1798.81   492.3 1798.72  502.53 1798.71  526.51 1798.53
  527.81  1798.5  542.15 1798.42  549.52 1798.55  575.17 1798.06  580.73 1798.21
  593.24 1798.24  598.84 1798.39  613.05 1798.76  617.59    1799   619.3 1798.95
  625.56 1799.13  628.69  1798.7  632.86 1798.62  640.16 1798.21  640.28 1798.19
  643.28 1798.04  651.62 1798.16  655.79 1798.08  658.04 1798.13  665.93 1799.81
  672.48 1799.82  674.81 1799.82  677.77 1798.78  687.64 1799.82  699.58 1798.97
  705.39 1798.58  719.21 1798.35  727.73 1798.34  754.84 1798.04  759.65 1797.99
  778.82 1798.07   788.2 1799.09  804.89  1802.6  805.04  1802.6  826.78 1802.81
  852.39 1802.94  855.97 1802.94  872.65 1800.13  885.17 1798.16  887.91  1798.1
  894.55 1797.96   908.1 1797.87  916.52 1797.91  939.38 1798.22  962.89 1798.55
  973.79 1798.58 1002.35  1798.4 1011.32 1798.11 1035.89 1797.51  1049.9 1798.38
 1072.39 1799.71  1084.3 1799.39 1096.07 1799.02 1097.06 1799.01 1119.75  1798.2
 1125.07 1794.71 1125.66 1794.37 1126.25 1793.93 1128.85 1792.18 1132.16 1791.44
 1133.93 1790.88 1139.25 1790.12  1144.3 1792.99 1144.77  1793.2 1148.72 1794.84
  1164.5 1798.55 1185.58 1799.66 1186.36 1799.65 1206.66 1799.17 1218.58 1799.06
 1233.49 1798.87  1248.5 1801.32 1248.82 1801.37 1259.36 1799.56 1274.96  1800.7
  1292.9 1802.19 1301.43 1803.15 1327.39 1806.28  1332.5 1806.71  1352.3 1808.47
 1360.11 1809.08 1371.47 1809.99 1381.98 1810.78 1384.88 1810.97 1403.84 1811.49
 1410.75 1811.72 1422.25 1813.97
#Mann= 3 , 0 , 0 
       0      .1       0 1119.75     .04       0  1164.5      .1       0
Bank Sta=1119.75,1164.5
XS Rating Curve= 0 ,0
XS HTab Starting El and Incr=1790.62,1, 25 
XS HTab Horizontal Distribution= 5 , 5 , 5 
Exp/Cntr=0.3,0.1

Type RM Length L Ch R = 1 ,9       ,125,125,115
BEGIN DESCRIPTION:
Cross Section 9
END DESCRIPTION:
XS GIS Cut Line=5
0.660917635497320.696303515958360.501671573942880.68966566891525
0.498408271757030.689174705147060.495144969571180.68868374137887
0.457790574337430.68306377313874
Node Last Edited Time=Feb/01/2021 17:43:43
#Sta/Elev= 61 
       0  1813.3      12  1813.3      21    1813      35  1808.5      54  1802.4
      72  1798.9      93  1796.8     133  1796.5     169  1796.8     208  1797.1
     248  1796.8     274  1796.6     306  1797.4     338  1797.1     375  1797.8