Flow Title=Hajdari - Design Flow
Program Version=5.03
Number of Profiles= 1 
Profile Names=PF 1
River Rch & RM=Hajdari,400129292       ,160     
   116.2
Boundary for River Rch & Prof#=Hajdari,400129292       , 1 
Up Type= 0 
Dn Type= 1 
Dn Known WS=103.13
DSS Import StartDate=
DSS Import StartTime=
DSS Import EndDate=
DSS Import EndTime=
DSS Import GetInterval= 0 
DSS Import Interval=
DSS Import GetPeak= 0 
DSS Import FillOption= 0 
