Geom Title=Hajdari-Without Bridge
Program Version=5.03
Viewing Rectangle= 0 , 1 , 1 , 0 

River Reach=Hajdari         ,400129292       
Reach XY= 2 
0.23157894736842             0.90.231578947368420.05789473684211
Rch Text X Y=0.2315789,0.6894737
Reverse River Text= 0 

Type RM Length L Ch R = 1 ,160     ,1,1,1
BEGIN DESCRIPTION:
Upstream
END DESCRIPTION:
Node Last Edited Time=Feb/23/2021 11:53:32
#Sta/Elev= 17 
      80  106.55      85   106.4      85   104.1      89   102.1      93   100.1
     107   100.1     111  102.09     115  102.09     115   102.1     145   102.1
     175   102.1     205   102.1     235   102.1     265   102.1     295   102.1
     295   105.5     300  105.65
#Mann= 3 , 0 , 0 
      80     .05       0      89    .035       0     111     .05       0
Bank Sta=89,111
XS Rating Curve= 0 ,0
XS HTab Horizontal Distribution= 5 , 5 , 5 
Exp/Cntr=0.5,0.3

Type RM Length L Ch R = 1 ,159.00* ,1,1,1
Node Last Edited Time=Feb/23/2021 13:01:15
#Sta/Elev= 26 
      80 106.546  84.911 106.399  84.911 104.191   88.84 102.268   88.84 102.176
      93 100.096     107 100.096  109.08 101.131  111.16 102.166  111.16 102.222
 115.157 102.218 141.783 102.202 145.131   102.2 172.405 102.184 175.106 102.183
 203.028 102.178  205.08 102.178 233.651 102.184 235.055 102.185 264.274 102.202
  265.03 102.202 294.896 102.202 294.896 102.232 295.004 102.232 295.004 105.496
     300 105.646
#Mann= 3 , 0 , 0 
      80     .05       0   88.84    .035       0  111.16     .05       0
Bank Sta=88.84,111.16
XS Rating Curve= 0 ,0
XS HTab Horizontal Distribution= 5 , 5 , 5 
Exp/Cntr=0.5,0.3

Type RM Length L Ch R = 1 ,158.00* ,1,1,1
Node Last Edited Time=Feb/23/2021 13:01:15
#Sta/Elev= 26 
      80 106.542  84.822 106.397  84.822 104.281   88.68 102.436   88.68 102.252
      93 100.092     107 100.092  109.16 101.167  111.32 102.243  111.32 102.355
 115.313 102.347 141.917 102.304 145.262   102.3 172.514 102.268 175.212 102.267
  203.11 102.256 205.161 102.257 233.707 102.268  235.11  102.27 264.304 102.304
 265.059 102.304 294.901 102.304 294.901 102.364 295.008 102.364 295.008 105.492
     300 105.642
#Mann= 3 , 0 , 0 
      80     .05       0   88.68    .035       0  111.32     .05       0
Bank Sta=88.68,111.32
XS Rating Curve= 0 ,0
XS HTab Horizontal Distribution= 5 , 5 , 5 
Exp/Cntr=0.5,0.3

Type RM Length L Ch R = 1 ,157.00* ,1,1,1
Node Last Edited Time=Feb/23/2021 13:01:15
#Sta/Elev= 26 
      80 106.538  84.733 106.396  84.733 104.372   88.52 102.604   88.52 102.328
      93 100.088     107 100.088  109.24 101.204  111.48 102.319  111.48 102.487
  115.47 102.475 142.051 102.406 145.394   102.4 172.622 102.352 175.317  102.35
 203.192 102.334 205.241 102.335 233.763 102.352 235.165 102.354 264.334 102.406
 265.089 102.406 294.905 102.406 294.905 102.496 295.013 102.496 295.013 105.488
     300 105.638
#Mann= 3 , 0 , 0 
      80     .05       0   88.52    .035       0  111.48     .05       0
Bank Sta=88.52,111.48
XS Rating Curve= 0 ,0
XS HTab Horizontal Distribution= 5 , 5 , 5 
Exp/Cntr=0.5,0.3

Type RM Length L Ch R = 1 ,156.00* ,1,1,1
Node Last Edited Time=Feb/23/2021 13:01:15
#Sta/Elev= 26 
      80 106.534  84.644 106.395  84.644 104.463   88.36 102.772   88.36 102.404
      93 100.084     107 100.084  109.32  101.24  111.64 102.396  111.64  102.62
 115.626 102.604 142.185 102.508 145.525   102.5  172.73 102.436 175.423 102.434
 203.275 102.412 205.322 102.414 233.819 102.436  235.22 102.439 264.364 102.508
 265.119 102.508 294.909 102.508 294.909 102.628 295.017 102.629 295.017 105.485
     300 105.634
#Mann= 3 , 0 , 0 
      80     .05       0   88.36    .035       0  111.64     .05       0
Bank Sta=88.36,111.64
XS Rating Curve= 0 ,0
XS HTab Horizontal Distribution= 5 , 5 , 5 
Exp/Cntr=0.5,0.3

Type RM Length L Ch R = 1 ,155.00* ,1,1,1
Node Last Edited Time=Feb/23/2021 13:01:15
#Sta/Elev= 26 
      80  106.53  84.556 106.393  84.556 104.553    88.2  102.94    88.2  102.48
      93  100.08     107  100.08   109.4 101.276   111.8 102.472   111.8 102.752
 115.783 102.732 142.319  102.61 145.656   102.6 172.838  102.52 175.529 102.517
 203.357  102.49 205.402 102.492 233.876  102.52 235.275 102.524 264.395  102.61
 265.148  102.61 294.914  102.61 294.914  102.76 295.021 102.761 295.021 105.481
     300  105.63
#Mann= 3 , 0 , 0 
      80     .05       0    88.2    .035       0   111.8     .05       0
Bank Sta=88.2,111.8
XS Rating Curve= 0 ,0
XS HTab Horizontal Distribution= 5 , 5 , 5 
Exp/Cntr=0.5,0.3

Type RM Length L Ch R = 1 ,154.00* ,1,1,1
Node Last Edited Time=Feb/23/2021 13:01:15
#Sta/Elev= 26 
      80 106.526  84.467 106.392  84.467 104.644   88.04 103.108   88.04 102.556
      93 100.076     107 100.076  109.48 101.312  111.96 102.548  111.96 102.884
  115.94 102.861 142.453 102.712 145.787   102.7 172.946 102.604 175.635 102.601
 203.439 102.568 205.483  102.57 233.932 102.604  235.33 102.609 264.425 102.712
 265.178 102.712 294.918 102.712 294.918 102.892 295.025 102.893 295.025 105.477
     300 105.626
#Mann= 3 , 0 , 0 
      80     .05       0   88.04    .035       0  111.96     .05       0
Bank Sta=88.04,111.96
XS Rating Curve= 0 ,0
XS HTab Horizontal Distribution= 5 , 5 , 5 
Exp/Cntr=0.5,0.3

Type RM Length L Ch R = 1 ,153.00* ,1,1,1
Node Last Edited Time=Feb/23/2021 13:01:15
#Sta/Elev= 26 
      80 106.522  84.378 106.391  84.378 104.735   87.88 103.276   87.88 102.632
      93 100.072     107 100.072  109.56 101.348  112.12 102.625  112.12 103.017
 116.096 102.989 142.587 102.814 145.919   102.8 173.054 102.688 175.741 102.684
 203.521 102.646 205.563 102.649 233.988 102.688 235.385 102.694 264.455 102.814
 265.207 102.814 294.922 102.814 294.922 103.024  295.03 103.025  295.03 105.473
     300 105.622
#Mann= 3 , 0 , 0 
      80     .05       0   87.88    .035       0  112.12     .05       0
Bank Sta=87.88,112.12
XS Rating Curve= 0 ,0
XS HTab Horizontal Distribution= 5 , 5 , 5 
Exp/Cntr=0.5,0.3

Type RM Length L Ch R = 1 ,152.00* ,1,1,1
Node Last Edited Time=Feb/23/2021 13:01:15
#Sta/Elev= 26 
      80 106.518  84.289 106.389  84.289 104.825   87.72 103.444   87.72 102.708
      93 100.068     107 100.068  109.64 101.385  112.28 102.701  112.28 103.149
 116.253 103.118 142.721 102.916  146.05   102.9 173.162 102.772 175.847 102.768
 203.603 102.724 205.643 102.727 234.044 102.772  235.44 102.779 264.485 102.916
 265.237 102.916 294.926 102.916 294.926 103.156 295.034 103.157 295.034 105.469
     300 105.618
#Mann= 3 , 0 , 0 
      80     .05       0   87.72    .035       0  112.28     .05       0
Bank Sta=87.72,112.28
XS Rating Curve= 0 ,0
XS HTab Horizontal Distribution= 5 , 5 , 5 
Exp/Cntr=0.5,0.3

Type RM Length L Ch R = 1 ,151.00* ,1,1,1
Node Last Edited Time=Feb/23/2021 13:01:15
#Sta/Elev= 26 
      80 106.514    84.2 106.388    84.2 104.916   87.56 103.612   87.56 102.784
      93 100.064     107 100.064  109.72 101.421  112.44 102.778  112.44 103.282
  116.41 103.246 142.855 103.018 146.181     103  173.27 102.856 175.952 102.851
 203.685 102.802 205.724 102.806 234.101 102.856 235.495 102.863 264.516 103.018
 265.267 103.018 294.931 103.018 294.931 103.288 295.038 103.289 295.038 105.465
     300 105.614
#Mann= 3 , 0 , 0 
      80     .05       0   87.56    .035       0  112.44     .05       0
Bank Sta=87.56,112.44
XS Rating Curve= 0 ,0
XS HTab Horizontal Distribution= 5 , 5 , 5 
Exp/Cntr=0.5,0.3

Type RM Length L Ch R = 1 ,150.00* ,1,1,1
Node Last Edited Time=Feb/23/2021 13:01:15
#Sta/Elev= 26 
      80  106.51  84.111 106.387  84.111 105.007    87.4  103.78    87.4  102.86
      93  100.06     107  100.06   109.8 101.457   112.6 102.854   112.6 103.414
 116.566 103.375 142.989  103.12 146.312   103.1 173.378  102.94 176.058 102.935
 203.768  102.88 205.804 102.884 234.157  102.94  235.55 102.948 264.546  103.12
 265.296  103.12 294.935  103.12 294.935  103.42 295.042 103.421 295.042 105.461
     300  105.61
#Mann= 3 , 0 , 0 
      80     .05       0    87.4    .035       0   112.6     .05       0
Bank Sta=87.4,112.6
XS Rating Curve= 0 ,0
XS HTab Horizontal Distribution= 5 , 5 , 5 
Exp/Cntr=0.5,0.3

Type RM Length L Ch R = 1 ,149.00* ,1,1,1
Node Last Edited Time=Feb/23/2021 13:01:15
#Sta/Elev= 26 
      80 106.506  84.022 106.385  84.022 105.097   87.24 103.948   87.24 102.936
      93 100.056     107 100.056  109.88 101.493  112.76  102.93  112.76 103.546
 116.723 103.503 143.123 103.222 146.443   103.2 173.486 103.024 176.164 103.018
  203.85 102.958 205.885 102.962 234.213 103.024 235.605 103.033 264.576 103.222
 265.326 103.222 294.939 103.222 294.939 103.552 295.047 103.553 295.047 105.457
     300 105.606
#Mann= 3 , 0 , 0 
      80     .05       0   87.24    .035       0  112.76     .05       0
Bank Sta=87.24,112.76
XS Rating Curve= 0 ,0
XS HTab Horizontal Distribution= 5 , 5 , 5 
Exp/Cntr=0.5,0.3

Type RM Length L Ch R = 1 ,148.00* ,1,1,1
Node Last Edited Time=Feb/23/2021 13:01:15
#Sta/Elev= 26 
      80 106.502  83.933 106.384  83.933 105.188   87.08 104.116   87.08 103.012
      93 100.052     107 100.052  109.96 101.529  112.92 103.007  112.92 103.679
 116.879 103.632 143.257 103.324 146.575   103.3 173.595 103.108  176.27 103.102
 203.932 103.036 205.965 103.041 234.269 103.108  235.66 103.118 264.607 103.324
 265.356 103.324 294.944 103.324 294.944 103.684 295.051 103.686 295.051 105.454
     300 105.602
#Mann= 3 , 0 , 0 
      80     .05       0   87.08    .035       0  112.92     .05       0
Bank Sta=87.08,112.92
XS Rating Curve= 0 ,0
XS HTab Horizontal Distribution= 5 , 5 , 5 
Exp/Cntr=0.5,0.3

Type RM Length L Ch R = 1 ,147.00* ,1,1,1
Node Last Edited Time=Feb/23/2021 13:01:15
#Sta/Elev= 26 
      80 106.498  83.844 106.383  83.844 105.279   86.92 104.284   86.92 103.088
      93 100.048     107 100.048  110.04 101.566  113.08 103.083  113.08 103.811
 117.036  103.76 143.391 103.426 146.706   103.4 173.703 103.192 176.376 103.185
 204.014 103.114 206.046 103.119 234.325 103.192 235.715 103.203 264.637 103.426
 265.385 103.426 294.948 103.426 294.948 103.816 295.055 103.818 295.055  105.45
     300 105.598
#Mann= 3 , 0 , 0 
      80     .05       0   86.92    .035       0  113.08     .05       0
Bank Sta=86.92,113.08
XS Rating Curve= 0 ,0
XS HTab Horizontal Distribution= 5 , 5 , 5 
Exp/Cntr=0.5,0.3

Type RM Length L Ch R = 1 ,146.00* ,1,1,1
Node Last Edited Time=Feb/23/2021 13:01:15
#Sta/Elev= 26 
      80 106.494  83.756 106.381  83.756 105.369   86.76 104.452   86.76 103.164
      93 100.044     107 100.044  110.12 101.602  113.24  103.16  113.24 103.944
 117.193 103.889 143.525 103.528 146.837   103.5 173.811 103.276 176.481 103.269
 204.096 103.192 206.126 103.198 234.382 103.276  235.77 103.288 264.667 103.528
 265.415 103.528 294.952 103.528 294.952 103.948 295.059  103.95 295.059 105.446
     300 105.594
#Mann= 3 , 0 , 0 
      80     .05       0   86.76    .035       0  113.24     .05       0
Bank Sta=86.76,113.24
XS Rating Curve= 0 ,0
XS HTab Horizontal Distribution= 5 , 5 , 5 
Exp/Cntr=0.5,0.3

Type RM Length L Ch R = 1 ,145.00* ,1,1,1
Node Last Edited Time=Feb/23/2021 13:01:15
#Sta/Elev= 26 
      80  106.49  83.667  106.38  83.667  105.46    86.6  104.62    86.6  103.24
      93  100.04     107  100.04   110.2 101.638   113.4 103.236   113.4 104.076
 117.349 104.017 143.659  103.63 146.968   103.6 173.919  103.36 176.587 103.352
 204.178  103.27 206.206 103.276 234.438  103.36 235.825 103.372 264.697  103.63
 265.444  103.63 294.957  103.63 294.957  104.08 295.064 104.082 295.064 105.442
     300  105.59
#Mann= 3 , 0 , 0 
      80     .05       0    86.6    .035       0   113.4     .05       0
Bank Sta=86.6,113.4
XS Rating Curve= 0 ,0
XS HTab Horizontal Distribution= 5 , 5 , 5 
Exp/Cntr=0.5,0.3

Type RM Length L Ch R = 1 ,144.00* ,1,1,1
Node Last Edited Time=Feb/23/2021 13:01:15
#Sta/Elev= 26 
      80 106.486  83.578 106.379  83.578 105.551   86.44 104.788   86.44 103.316
      93 100.036     107 100.036  110.28 101.674  113.56 103.312  113.56 104.208
 117.506 104.146 143.794 103.732 147.099 103.701 174.027 103.444 176.693 103.436
 204.261 103.348 206.287 103.354 234.494 103.444  235.88 103.457 264.728 103.732
 265.474 103.732 294.961 103.732 294.961 104.212 295.068 104.214 295.068 105.438
     300 105.586
#Mann= 3 , 0 , 0 
      80     .05       0   86.44    .035       0  113.56     .05       0
Bank Sta=86.44,113.56
XS Rating Curve= 0 ,0
XS HTab Horizontal Distribution= 5 , 5 , 5 
Exp/Cntr=0.5,0.3

Type RM Length L Ch R = 1 ,143.00* ,1,1,1
Node Last Edited Time=Feb/23/2021 13:01:15
#Sta/Elev= 26 
      80 106.482  83.489 106.377  83.489 105.641   86.28 104.956   86.28 103.392
      93 100.032     107 100.032  110.36  101.71  113.72 103.389  113.72 104.341
 117.662 104.274 143.928 103.834 147.231 103.801 174.135 103.528 176.799 103.519
 204.343 103.426 206.367 103.433  234.55 103.528 235.935 103.542 264.758 103.834
 265.504 103.834 294.965 103.834 294.965 104.344 295.072 104.346 295.072 105.434
     300 105.582
#Mann= 3 , 0 , 0 
      80     .05       0   86.28    .035       0  113.72     .05       0
Bank Sta=86.28,113.72
XS Rating Curve= 0 ,0
XS HTab Horizontal Distribution= 5 , 5 , 5 
Exp/Cntr=0.5,0.3

Type RM Length L Ch R = 1 ,142.00* ,1,1,1
Node Last Edited Time=Feb/23/2021 13:01:15
#Sta/Elev= 26 
      80 106.478    83.4 106.376    83.4 105.732   86.12 105.124   86.12 103.468
      93 100.028     107 100.028  110.44 101.747  113.88 103.465  113.88 104.473
 117.819 104.403 144.062 103.936 147.362 103.901 174.243 103.612 176.905 103.602
 204.425 103.504 206.448 103.511 234.606 103.612  235.99 103.627 264.788 103.936
 265.533 103.936  294.97 103.936  294.97 104.476 295.076 104.478 295.076  105.43
     300 105.578
#Mann= 3 , 0 , 0 
      80     .05       0   86.12    .035       0  113.88     .05       0
Bank Sta=86.12,113.88
XS Rating Curve= 0 ,0
XS HTab Horizontal Distribution= 5 , 5 , 5 
Exp/Cntr=0.5,0.3

Type RM Length L Ch R = 1 ,141.00* ,1,1,1
Node Last Edited Time=Feb/23/2021 13:01:15
#Sta/Elev= 26 
      80 106.474  83.311 106.375  83.311 105.823   85.96 105.292   85.96 103.544
      93 100.024     107 100.024  110.52 101.783  114.04 103.542  114.04 104.606
 117.976 104.531 144.196 104.038 147.493 104.001 174.351 103.696 177.011 103.686
 204.507 103.582 206.528  103.59 234.663 103.696 236.046 103.712 264.818 104.038
 265.563 104.038 294.974 104.038 294.974 104.608  295.08  104.61  295.08 105.426
     300 105.574
#Mann= 3 , 0 , 0 
      80     .05       0   85.96    .035       0  114.04     .05       0
Bank Sta=85.96,114.04
XS Rating Curve= 0 ,0
XS HTab Horizontal Distribution= 5 , 5 , 5 
Exp/Cntr=0.5,0.3

Type RM Length L Ch R = 1 ,140.00* ,1,1,1
Node Last Edited Time=Feb/23/2021 13:01:15
#Sta/Elev= 26 
      80  106.47  83.222 106.373  83.222 105.913    85.8  105.46    85.8  103.62
      93  100.02     107  100.02   110.6 101.819   114.2 103.618   114.2 104.738
 118.132  104.66  144.33  104.14 147.624 104.101 174.459  103.78 177.116 103.769
 204.589  103.66 206.608 103.668 234.719  103.78 236.101 103.797 264.849  104.14
 265.593  104.14 294.978  104.14 294.978  104.74 295.085 104.743 295.085 105.423
     300  105.57
#Mann= 3 , 0 , 0 
      80     .05       0    85.8    .035       0   114.2     .05       0
Bank Sta=85.8,114.2
XS Rating Curve= 0 ,0
XS HTab Horizontal Distribution= 5 , 5 , 5 
Exp/Cntr=0.5,0.3

Type RM Length L Ch R = 1 ,139.00* ,1,1,1
Node Last Edited Time=Feb/23/2021 13:01:15
#Sta/Elev= 26 
      80 106.466  83.133 106.372  83.133 106.004   85.64 105.628   85.64 103.696
      93 100.016     107 100.016  110.68 101.855  114.36 103.694  114.36  104.87
 118.289 104.788 144.464 104.242 147.756 104.201 174.568 103.864 177.222 103.853
 204.671 103.738 206.689 103.746 234.775 103.864 236.156 103.881 264.879 104.242
 265.622 104.242 294.983 104.242 294.983 104.872 295.089 104.875 295.089 105.419
     300 105.566
#Mann= 3 , 0 , 0 
      80     .05       0   85.64    .035       0  114.36     .05       0
Bank Sta=85.64,114.36
XS Rating Curve= 0 ,0
XS HTab Horizontal Distribution= 5 , 5 , 5 
Exp/Cntr=0.5,0.3

Type RM Length L Ch R = 1 ,138.00* ,1,1,1
Node Last Edited Time=Feb/23/2021 13:01:15
#Sta/Elev= 26 
      80 106.462  83.044 106.371  83.044 106.095   85.48 105.796   85.48 103.772
      93 100.012     107 100.012  110.76 101.891  114.52 103.771  114.52 105.003
 118.446 104.917 144.598 104.344 147.887 104.301 174.676 103.948 177.328 103.936
 204.754 103.816 206.769 103.825 234.831 103.948 236.211 103.966 264.909 104.344
 265.652 104.344 294.987 104.344 294.987 105.004 295.093 105.007 295.093 105.415
     300 105.562
#Mann= 3 , 0 , 0 
      80     .05       0   85.48    .035       0  114.52     .05       0
Bank Sta=85.48,114.52
XS Rating Curve= 0 ,0
XS HTab Horizontal Distribution= 5 , 5 , 5 
Exp/Cntr=0.5,0.3

Type RM Length L Ch R = 1 ,137.00* ,1,1,1
Node Last Edited Time=Feb/23/2021 13:01:15
#Sta/Elev= 26 
      80 106.458  82.956 106.369  82.956 106.185   85.32 105.964   85.32 103.848
      93 100.008     107 100.008  110.84 101.928  114.68 103.847  114.68 105.135
 118.602 105.045 144.732 104.446 148.018 104.401 174.784 104.032 177.434  104.02
 204.836 103.894  206.85 103.903 234.888 104.032 236.266 104.051 264.939 104.446
 265.681 104.446 294.991 104.446 294.991 105.136 295.097 105.139 295.097 105.411
     300 105.558
#Mann= 3 , 0 , 0 
      80     .05       0   85.32    .035       0  114.68     .05       0
Bank Sta=85.32,114.68
XS Rating Curve= 0 ,0
XS HTab Horizontal Distribution= 5 , 5 , 5 
Exp/Cntr=0.5,0.3

Type RM Length L Ch R = 1 ,136.00* ,1,1,1
Node Last Edited Time=Feb/23/2021 13:01:15
#Sta/Elev= 26 
      80 106.454  82.867 106.368  82.867 106.276   85.16 106.132   85.16 103.924
      93 100.004     107 100.004  110.92 101.964  114.84 103.924  114.84 105.268
 118.759 105.174 144.866 104.548 148.149 104.501 174.892 104.116  177.54 104.103
 204.918 103.972  206.93 103.982 234.944 104.116 236.321 104.136  264.97 104.548
 265.711 104.548 294.996 104.548 294.996 105.268 295.102 105.271 295.102 105.407
     300 105.554
#Mann= 3 , 0 , 0 
      80     .05       0   85.16    .035       0  114.84     .05       0
Bank Sta=85.16,114.84
XS Rating Curve= 0 ,0
XS HTab Horizontal Distribution= 5 , 5 , 5 
Exp/Cntr=0.5,0.3

Type RM Length L Ch R = 1 ,135     ,1,1,1
BEGIN DESCRIPTION:
Intermediate
END DESCRIPTION:
Node Last Edited Time=Feb/23/2021 11:52:05
#Sta/Elev= 16 
      80  106.45      85   106.3      85     104      93     100     107     100
     111     102     115     104     115   105.4     145  104.65     175   104.2
     205  104.05     235   104.2     265  104.65     295  104.65     295   105.4
     300  105.55
#Mann= 3 , 0 , 0 
      80     .05       0      85    .035       0     115     .05       0
Bank Sta=85,115
XS Rating Curve= 0 ,0
XS HTab Horizontal Distribution= 5 , 5 , 5 
Exp/Cntr=0.5,0.3

Type RM Length L Ch R = 1 ,134.00* ,1,1,1
Node Last Edited Time=Feb/23/2021 13:00:43
#Sta/Elev= 16 
      80  106.45      85   106.3      85     104      93     100     107     100
     111     102     115     104     115   105.4     145  104.65     175   104.2
     205  104.05     235   104.2     265  104.65     295  104.65     295   105.4
     300  105.55
#Mann= 3 , 0 , 0 
      80     .05       0      85    .035       0     115     .05       0
Bank Sta=85,115
XS Rating Curve= 0 ,0
XS HTab Horizontal Distribution= 5 , 5 , 5 
Exp/Cntr=0.5,0.3

Type RM Length L Ch R = 1 ,133.00* ,1,1,1
Node Last Edited Time=Feb/23/2021 13:00:43
#Sta/Elev= 16 
      80  106.45      85   106.3      85     104      93     100     107     100
     111     102     115     104     115   105.4     145  104.65     175   104.2
     205  104.05     235   104.2     265  104.65     295  104.65     295   105.4
     300  105.55
#Mann= 3 , 0 , 0 
      80     .05       0      85    .035       0     115     .05       0
Bank Sta=85,115
XS Rating Curve= 0 ,0
XS HTab Horizontal Distribution= 5 , 5 , 5 
Exp/Cntr=0.5,0.3

Type RM Length L Ch R = 1 ,132.00* ,1,1,1
Node Last Edited Time=Feb/23/2021 13:00:43
#Sta/Elev= 16 
      80  106.45      85   106.3      85     104      93     100     107     100
     111     102     115     104     115   105.4     145  104.65     175   104.2
     205  104.05     235   104.2     265  104.65     295  104.65     295   105.4
     300  105.55
#Mann= 3 , 0 , 0 
      80     .05       0      85    .035       0     115     .05       0
Bank Sta=85,115
XS Rating Curve= 0 ,0
XS HTab Horizontal Distribution= 5 , 5 , 5 
Exp/Cntr=0.5,0.3

Type RM Length L Ch R = 1 ,131.00* ,1,1,1
Node Last Edited Time=Feb/23/2021 13:00:43
#Sta/Elev= 16 
      80  106.45      85   106.3      85     104      93     100     107     100
     111     102     115     104     115   105.4     145  104.65     175   104.2
     205  104.05     235   104.2     265  104.65     295  104.65     295   105.4
     300  105.55
#Mann= 3 , 0 , 0 
      80     .05       0      85    .035       0     115     .05       0
Bank Sta=85,115
XS Rating Curve= 0 ,0
XS HTab Horizontal Distribution= 5 , 5 , 5 
Exp/Cntr=0.5,0.3

Type RM Length L Ch R = 1 ,130.00* ,1,1,1
Node Last Edited Time=Feb/23/2021 13:00:43
#Sta/Elev= 16 
      80  106.45      85   106.3      85     104      93     100     107     100
     111     102     115     104     115   105.4     145  104.65     175   104.2
     205  104.05     235   104.2     265  104.65     295  104.65     295   105.4
     300  105.55
#Mann= 3 , 0 , 0 
      80     .05       0      85    .035       0     115     .05       0
Bank Sta=85,115
XS Rating Curve= 0 ,0
XS HTab Horizontal Distribution= 5 , 5 , 5 
Exp/Cntr=0.5,0.3

Type RM Length L Ch R = 1 ,129.00* ,1,1,1
Node Last Edited Time=Feb/23/2021 13:00:43
#Sta/Elev= 16 
      80  106.45      85   106.3      85     104      93     100     107     100
     111     102     115     104     115   105.4     145  104.65     175   104.2
     205  104.05     235   104.2     265  104.65     295  104.65     295   105.4
     300  105.55
#Mann= 3 , 0 , 0 
      80     .05       0      85    .035       0     115     .05       0
Bank Sta=85,115
XS Rating Curve= 0 ,0
XS HTab Horizontal Distribution= 5 , 5 , 5 
Exp/Cntr=0.5,0.3

Type RM Length L Ch R = 1 ,128.00* ,1,1,1
Node Last Edited Time=Feb/23/2021 13:00:43
#Sta/Elev= 16 
      80  106.45      85   106.3      85     104      93     100     107     100
     111     102     115     104     115   105.4     145  104.65     175   104.2
     205  104.05     235   104.2     265  104.65     295  104.65     295   105.4
     300  105.55
#Mann= 3 , 0 , 0 
      80     .05       0      85    .035       0     115     .05       0
Bank Sta=85,115
XS Rating Curve= 0 ,0
XS HTab Horizontal Distribution= 5 , 5 , 5 
Exp/Cntr=0.5,0.3

Type RM Length L Ch R = 1 ,127.00* ,1,1,1
Node Last Edited Time=Feb/23/2021 13:00:43
#Sta/Elev= 16 
      80  106.45      85   106.3      85     104      93     100     107     100
     111     102     115     104     115   105.4     145  104.65     175   104.2
     205  104.05     235   104.2     265  104.65     295  104.65     295   105.4
     300  105.55
#Mann= 3 , 0 , 0 
      80     .05       0      85    .035       0     115     .05       0
Bank Sta=85,115
XS Rating Curve= 0 ,0
XS HTab Horizontal Distribution= 5 , 5 , 5 
Exp/Cntr=0.5,0.3

Type RM Length L Ch R = 1 ,126.00* ,1,1,1
Node Last Edited Time=Feb/23/2021 13:00:43
#Sta/Elev= 16 
      80  106.45      85   106.3      85     104      93     100     107     100
     111     102     115     104     115   105.4     145  104.65     175   104.2
     205  104.05     235   104.2     265  104.65     295  104.65     295   105.4
     300  105.55
#Mann= 3 , 0 , 0 
      80     .05       0      85    .035       0     115     .05       0
Bank Sta=85,115
XS Rating Curve= 0 ,0
XS HTab Horizontal Distribution= 5 , 5 , 5 
Exp/Cntr=0.5,0.3

Type RM Length L Ch R = 1 ,125     ,1,1,1
BEGIN DESCRIPTION:
Intermediate
END DESCRIPTION:
Node Last Edited Time=Feb/23/2021 11:51:29
#Sta/Elev= 16 
      80  106.45      85   106.3      85     104      93     100     107     100
     111     102     115     104     115   105.4     145  104.65     175   104.2
     205  104.05     235   104.2     265  104.65     295  104.65     295   105.4
     300  105.55
#Mann= 3 , 0 , 0 
      80     .05       0      85    .035       0     115     .05       0
Bank Sta=85,115
XS Rating Curve= 0 ,0
XS HTab Horizontal Distribution= 5 , 5 , 5 
Exp/Cntr=0.5,0.3

Type RM Length L Ch R = 1 ,124.00* ,1,1,1
Node Last Edited Time=Feb/23/2021 13:00:28
#Sta/Elev= 26 
      80 106.446  82.867  106.36  82.867 106.268   85.16 106.124   85.16 103.916
      93  99.996     107  99.996  110.92 101.956  114.84 103.916  114.84  105.26
 118.759 105.166 144.866  104.54 148.149 104.493 174.892 104.108  177.54 104.095
 204.918 103.964  206.93 103.974 234.944 104.108 236.321 104.128  264.97  104.54
 265.711  104.54 294.996  104.54 294.996  105.26 295.102 105.263 295.102 105.399
     300 105.546
#Mann= 3 , 0 , 0 
      80     .05       0   85.16    .035       0  114.84     .05       0
Bank Sta=85.16,114.84
XS Rating Curve= 0 ,0
XS HTab Horizontal Distribution= 5 , 5 , 5 
Exp/Cntr=0.5,0.3

Type RM Length L Ch R = 1 ,123.00* ,1,1,1
Node Last Edited Time=Feb/23/2021 13:00:28
#Sta/Elev= 26 
      80 106.442  82.956 106.353  82.956 106.169   85.32 105.948   85.32 103.832
      93  99.992     107  99.992  110.84 101.912  114.68 103.831  114.68 105.119
 118.602 105.029 144.732  104.43 148.018 104.385 174.784 104.016 177.434 104.004
 204.836 103.878  206.85 103.887 234.888 104.016 236.266 104.035 264.939  104.43
 265.681  104.43 294.991  104.43 294.991  105.12 295.097 105.123 295.097 105.395
     300 105.542
#Mann= 3 , 0 , 0 
      80     .05       0   85.32    .035       0  114.68     .05       0
Bank Sta=85.32,114.68
XS Rating Curve= 0 ,0
XS HTab Horizontal Distribution= 5 , 5 , 5 
Exp/Cntr=0.5,0.3

Type RM Length L Ch R = 1 ,122.00* ,1,1,1
Node Last Edited Time=Feb/23/2021 13:00:28
#Sta/Elev= 26 
      80 106.438  83.044 106.347  83.044 106.071   85.48 105.772   85.48 103.748
      93  99.988     107  99.988  110.76 101.867  114.52 103.747  114.52 104.979
 118.446 104.893 144.598  104.32 147.887 104.277 174.676 103.924 177.328 103.912
 204.754 103.792 206.769 103.801 234.831 103.924 236.211 103.942 264.909  104.32
 265.652  104.32 294.987  104.32 294.987  104.98 295.093 104.983 295.093 105.391
     300 105.538
#Mann= 3 , 0 , 0 
      80     .05       0   85.48    .035       0  114.52     .05       0
Bank Sta=85.48,114.52
XS Rating Curve= 0 ,0
XS HTab Horizontal Distribution= 5 , 5 , 5 
Exp/Cntr=0.5,0.3

Type RM Length L Ch R = 1 ,121.00* ,1,1,1
Node Last Edited Time=Feb/23/2021 13:00:28
#Sta/Elev= 26 
      80 106.434  83.133  106.34  83.133 105.972   85.64 105.596   85.64 103.664
      93  99.984     107  99.984  110.68 101.823  114.36 103.662  114.36 104.838
 118.289 104.756 144.464  104.21 147.756 104.169 174.568 103.832 177.222 103.821
 204.671 103.706 206.689 103.714 234.775 103.832 236.156 103.849 264.879  104.21
 265.622  104.21 294.983  104.21 294.983  104.84 295.089 104.843 295.089 105.387
     300 105.534
#Mann= 3 , 0 , 0 
      80     .05       0   85.64    .035       0  114.36     .05       0
Bank Sta=85.64,114.36
XS Rating Curve= 0 ,0
XS HTab Horizontal Distribution= 5 , 5 , 5 
Exp/Cntr=0.5,0.3

Type RM Length L Ch R = 1 ,120.00* ,1,1,1
Node Last Edited Time=Feb/23/2021 13:00:28
#Sta/Elev= 26 
      80  106.43  83.222 106.333  83.222 105.873    85.8  105.42    85.8  103.58
      93   99.98     107   99.98   110.6 101.779   114.2 103.578   114.2 104.698
 118.132  104.62  144.33   104.1 147.624 104.061 174.459  103.74 177.116 103.729
 204.589  103.62 206.608 103.628 234.719  103.74 236.101 103.757 264.849   104.1
 265.593   104.1 294.978   104.1 294.978   104.7 295.085 104.703 295.085 105.383
     300  105.53
#Mann= 3 , 0 , 0 
      80     .05       0    85.8    .035       0   114.2     .05       0
Bank Sta=85.8,114.2
XS Rating Curve= 0 ,0
XS HTab Horizontal Distribution= 5 , 5 , 5 
Exp/Cntr=0.5,0.3

Type RM Length L Ch R = 1 ,119.00* ,1,1,1
Node Last Edited Time=Feb/23/2021 13:00:28
#Sta/Elev= 26 
      80 106.426  83.311 106.327  83.311 105.775   85.96 105.244   85.96 103.496
      93  99.976     107  99.976  110.52 101.735  114.04 103.494  114.04 104.558
 117.976 104.483 144.196  103.99 147.493 103.953 174.351 103.648 177.011 103.638
 204.507 103.534 206.528 103.542 234.663 103.648 236.046 103.664 264.818  103.99
 265.563  103.99 294.974  103.99 294.974  104.56  295.08 104.562  295.08 105.378
     300 105.526
#Mann= 3 , 0 , 0 
      80     .05       0   85.96    .035       0  114.04     .05       0
Bank Sta=85.96,114.04
XS Rating Curve= 0 ,0
XS HTab Horizontal Distribution= 5 , 5 , 5 
Exp/Cntr=0.5,0.3

Type RM Length L Ch R = 1 ,118.00* ,1,1,1
Node Last Edited Time=Feb/23/2021 13:00:28
#Sta/Elev= 26 
      80 106.422    83.4  106.32    83.4 105.676   86.12 105.068   86.12 103.412
      93  99.972     107  99.972  110.44 101.691  113.88 103.409  113.88 104.417
 117.819 104.347 144.062  103.88 147.362 103.845 174.243 103.556 176.905 103.546
 204.425 103.448 206.448 103.455 234.606 103.556  235.99 103.571 264.788  103.88
 265.533  103.88  294.97  103.88  294.97  104.42 295.076 104.422 295.076 105.374
     300 105.522
#Mann= 3 , 0 , 0 
      80     .05       0   86.12    .035       0  113.88     .05       0
Bank Sta=86.12,113.88
XS Rating Curve= 0 ,0
XS HTab Horizontal Distribution= 5 , 5 , 5 